Version 4
SHEET 1 880 680
WIRE 112 96 48 96
WIRE 160 96 112 96
WIRE 272 96 240 96
WIRE 304 96 272 96
WIRE 304 112 304 96
WIRE 48 208 48 176
WIRE 176 208 48 208
WIRE 304 208 304 192
WIRE 304 208 176 208
WIRE 176 240 176 208
FLAG 176 240 0
FLAG 112 96 n1
FLAG 272 96 n2
SYMBOL voltage 48 80 R0
WINDOW 0 -77 62 Left 2
WINDOW 123 0 0 Left 0
WINDOW 39 0 0 Left 0
SYMATTR InstName VF
SYMATTR Value SINE(0 169.71 60)
SYMBOL res 144 112 R270
WINDOW 0 42 56 VTop 2
WINDOW 3 -10 53 VBottom 2
SYMATTR InstName R
SYMATTR Value 40
SYMBOL ind 288 96 R0
SYMATTR InstName L
SYMATTR Value 133m
TEXT 16 264 Left 2 !.tran 0.051
