Version 4
SHEET 1 1732 680
WIRE 656 32 384 32
WIRE 384 112 384 32
WIRE 384 112 48 112
WIRE 336 176 256 176
WIRE 384 192 384 176
WIRE 656 192 656 32
WIRE 48 224 48 112
WIRE 96 224 48 224
WIRE 256 224 256 176
WIRE 256 224 176 224
WIRE 384 288 384 272
WIRE 656 288 656 272
WIRE 656 288 384 288
WIRE 160 320 160 272
WIRE 384 368 384 288
WIRE 384 368 320 368
WIRE 112 400 112 272
WIRE 160 400 112 400
WIRE 320 400 320 368
WIRE 320 400 160 400
WIRE 384 400 384 368
FLAG 384 400 0
SYMBOL res 368 176 R0
SYMATTR InstName R1
SYMATTR Value {R}
SYMBOL voltage 160 304 R0
WINDOW 3 -500 45 Left 2
WINDOW 123 0 0 Left 0
WINDOW 39 0 0 Left 0
SYMATTR Value PULSE(0 1 8m 1u 1u 3m 20m)
SYMATTR InstName V2
SYMBOL Misc\\SCR 368 112 R0
SYMATTR InstName U1
SYMATTR Value TN3050H-12LY
SYMBOL sw 80 224 R270
SYMATTR InstName S1
SYMBOL voltage 656 176 R0
SYMATTR InstName V1
SYMATTR Value 100
TEXT 16 424 Left 2 !.tran 0.1
TEXT 464 408 Left 2 !.lib C:\\Users\\user\\Documents\\LTspiceXVII\\lib\\high-temperature_scr_pspice\\st_high-temperature_scr.lib
TEXT 8 568 Left 2 !.model SW SW(Ron=1 Roff=1Meg Vt=.5 Vh=-.4)
