Version 4
SHEET 1 1732 680
WIRE 176 112 48 112
WIRE 384 112 256 112
WIRE 48 128 48 112
WIRE 336 176 288 176
WIRE 288 240 288 176
WIRE 48 272 48 208
WIRE 384 320 384 176
WIRE 384 320 288 320
WIRE 384 400 384 320
FLAG 48 272 0
FLAG 384 400 0
SYMBOL voltage 48 112 R0
WINDOW 123 0 0 Left 0
WINDOW 39 0 0 Left 0
SYMATTR InstName V1
SYMATTR Value SINE(0 100 60)
SYMBOL res 272 96 R90
WINDOW 0 0 56 VBottom 2
WINDOW 3 32 56 VTop 2
SYMATTR InstName R1
SYMATTR Value 100
SYMBOL voltage 288 224 R0
WINDOW 3 118 83 Left 2
WINDOW 123 0 0 Left 0
WINDOW 39 0 0 Left 0
SYMATTR InstName V2
SYMATTR Value PULSE(0 10 1m 1u 1u 3m 20m)
SYMBOL Misc\\SCR 368 112 R0
SYMATTR InstName U1
SYMATTR Value TN3050H-12LY
TEXT 14 424 Left 2 !.tran 0.2
TEXT 464 408 Left 2 !.lib C:\\Users\\Daniel\\Documents\\LTspiceXVII\\lib\\high-temperature_scr_pspice\\st_high-temperature_scr.lib
